Version 4
SHEET 1 880 680
WIRE 176 64 96 64
WIRE 352 64 256 64
WIRE 96 128 96 64
WIRE 352 128 352 64
WIRE 96 256 96 208
WIRE 304 256 96 256
WIRE 352 256 352 192
WIRE 352 256 304 256
WIRE 304 272 304 256
FLAG 304 272 0
SYMBOL voltage 96 112 R0
WINDOW 123 0 0 Left 0
WINDOW 39 0 0 Left 0
SYMATTR InstName V1
SYMATTR Value -5
SYMBOL res 272 48 R90
WINDOW 0 0 56 VBottom 2
WINDOW 3 32 56 VTop 2
SYMATTR InstName R1
SYMATTR Value 499
SYMBOL zener 336 128 R0
SYMATTR InstName D2
TEXT 64 296 Left 2 !.dc V1 -5 15 1
TEXT 376 64 Left 2 !.model D ako: 1N750 Bv=2.7
