Version 4
SHEET 1 880 680
WIRE 16 80 -64 80
WIRE 272 80 96 80
WIRE 528 80 272 80
WIRE 272 96 272 80
WIRE -64 128 -64 80
WIRE 528 144 528 80
WIRE 272 176 272 160
WIRE -64 256 -64 208
WIRE 272 256 272 240
WIRE 272 256 -64 256
WIRE 528 256 528 224
WIRE 528 256 272 256
WIRE -64 272 -64 256
FLAG -64 272 0
SYMBOL voltage -64 112 R0
WINDOW 123 0 0 Left 0
WINDOW 39 0 0 Left 0
SYMATTR InstName V1
SYMATTR Value SINE(0 5 200)
SYMBOL res 112 64 R90
WINDOW 0 0 56 VBottom 2
WINDOW 3 32 56 VTop 2
SYMATTR InstName R1
SYMATTR Value 100
SYMBOL res 544 240 R180
WINDOW 0 36 76 Left 2
WINDOW 3 36 40 Left 2
SYMATTR InstName R2
SYMATTR Value 1k
SYMBOL zener 288 160 R180
WINDOW 0 24 64 Left 2
WINDOW 3 24 0 Left 2
SYMATTR InstName D1
SYMBOL zener 256 176 R0
SYMATTR InstName D2
TEXT 480 24 Left 2 !.model D ako: 1N750 Bv=2.7
TEXT -98 296 Left 2 !.tran .05
