Version 4
SHEET 1 1392 680
WIRE 176 16 16 16
WIRE 448 16 176 16
WIRE 576 16 448 16
WIRE 672 16 576 16
WIRE 752 16 672 16
WIRE 944 16 832 16
WIRE 1024 16 944 16
WIRE 16 128 16 16
WIRE 1024 160 1024 16
WIRE 576 176 576 16
WIRE 672 176 672 16
WIRE 944 176 944 16
WIRE 16 256 16 208
WIRE 448 256 448 80
WIRE 448 256 16 256
WIRE 480 256 448 256
WIRE 176 304 176 80
WIRE 448 304 448 256
WIRE 176 416 176 368
WIRE 448 416 448 368
WIRE 448 416 176 416
WIRE 576 416 576 240
WIRE 576 416 448 416
WIRE 672 416 672 240
WIRE 672 416 576 416
WIRE 944 416 944 240
WIRE 944 416 672 416
WIRE 1024 416 1024 240
WIRE 1024 416 944 416
FLAG 480 256 0
SYMBOL voltage 16 112 R0
WINDOW 123 0 0 Left 0
WINDOW 39 0 0 Left 0
SYMATTR InstName V1
SYMATTR Value SINE(0 5 100)
SYMBOL diode 192 80 R180
WINDOW 0 24 64 Left 2
WINDOW 3 24 0 Left 2
SYMATTR InstName D1
SYMATTR Value 1N4148
SYMBOL diode 464 80 R180
WINDOW 0 24 64 Left 2
WINDOW 3 24 0 Left 2
SYMATTR InstName D3
SYMATTR Value 1N4148
SYMBOL diode 192 368 R180
WINDOW 0 24 64 Left 2
WINDOW 3 24 0 Left 2
SYMATTR InstName D4
SYMATTR Value 1N4148
SYMBOL diode 464 368 R180
WINDOW 0 24 64 Left 2
WINDOW 3 24 0 Left 2
SYMATTR InstName D2
SYMATTR Value 1N4148
SYMBOL cap 560 176 R0
SYMATTR InstName C1
SYMATTR Value 10µ
SYMBOL cap 656 176 R0
SYMATTR InstName C2
SYMATTR Value 30µ
SYMBOL res 848 0 R90
WINDOW 0 0 56 VBottom 2
WINDOW 3 32 56 VTop 2
SYMATTR InstName R1
SYMATTR Value 1k
SYMBOL res 1008 144 R0
SYMATTR InstName R2
SYMATTR Value 10k
SYMBOL zener 960 240 R180
WINDOW 0 24 64 Left 2
WINDOW 3 24 0 Left 2
SYMATTR InstName D5
TEXT -16 424 Left 2 !.tran .05
TEXT 1056 16 Left 2 !.model D ako: 1N750 Bv=2.7
