Version 4
SHEET 1 880 680
WIRE 176 16 16 16
WIRE 448 16 176 16
WIRE 576 16 448 16
WIRE 672 16 576 16
WIRE 752 16 672 16
WIRE 16 128 16 16
WIRE 576 176 576 16
WIRE 672 176 672 16
WIRE 752 176 752 16
WIRE 16 256 16 208
WIRE 448 256 448 80
WIRE 448 256 16 256
WIRE 480 256 448 256
WIRE 176 304 176 80
WIRE 448 304 448 256
WIRE 176 416 176 368
WIRE 448 416 448 368
WIRE 448 416 176 416
WIRE 576 416 576 240
WIRE 576 416 448 416
WIRE 672 416 672 240
WIRE 672 416 576 416
WIRE 752 416 752 256
WIRE 752 416 672 416
FLAG 480 256 0
SYMBOL voltage 16 112 R0
WINDOW 123 0 0 Left 0
WINDOW 39 0 0 Left 0
SYMATTR InstName V1
SYMATTR Value SINE(0 5 100)
SYMBOL diode 192 80 R180
WINDOW 0 24 64 Left 2
WINDOW 3 24 0 Left 2
SYMATTR InstName D1
SYMATTR Value 1N4148
SYMBOL diode 464 80 R180
WINDOW 0 24 64 Left 2
WINDOW 3 24 0 Left 2
SYMATTR InstName D3
SYMATTR Value 1N4148
SYMBOL diode 192 368 R180
WINDOW 0 24 64 Left 2
WINDOW 3 24 0 Left 2
SYMATTR InstName D4
SYMATTR Value 1N4148
SYMBOL diode 464 368 R180
WINDOW 0 24 64 Left 2
WINDOW 3 24 0 Left 2
SYMATTR InstName D2
SYMATTR Value 1N4148
SYMBOL cap 560 176 R0
SYMATTR InstName C1
SYMATTR Value 10µ
SYMBOL cap 656 176 R0
SYMATTR InstName C2
SYMATTR Value 30µ
SYMBOL res 736 160 R0
SYMATTR InstName R1
SYMATTR Value 1k
TEXT -18 426 Left 2 !.tran .05
